[Format]      =  4.0
[Frequency]   =  0
[Precision]   =  1e-008
[MinAngle]    =  30
[DoSmartMesh] =  1
[Depth]       =  1
[LengthUnits] =  millimeters
[ProblemType] =  axisymmetric
[Coordinates] =  cartesian
[ACSolver]    =  0
[PrevType]    =  0
[PrevSoln]    =  ""
[Comment]     =  "Add comments here."
[PointProps]   = 0
[BdryProps]   = 1
  <BeginBdry>
    <BdryName> = "BC"
    <BdryType> = 3
    <A_0> = 0
    <A_1> = 0
    <A_2> = 0
    <Phi> = 0
    <c0> = 0
    <c0i> = 0
    <c1> = 0
    <c1i> = 0
    <Mu_ssd> = 0
    <Sigma_ssd> = 0
    <innerangle> = 0
    <outerangle> = 0
  <EndBdry>
[BlockProps]  = 4
  <BeginBlock>
    <BlockName> = "Air"
    <Mu_x> = 1
    <Mu_y> = 1
    <H_c> = 0
    <H_cAngle> = 0
    <J_re> = 0
    <J_im> = 0
    <Sigma> = 0
    <d_lam> = 0
    <Phi_h> = 0
    <Phi_hx> = 0
    <Phi_hy> = 0
    <LamType> = 0
    <LamFill> = 1
    <NStrands> = 0
    <WireD> = 0
    <BHPoints> = 0
  <EndBlock>
  <BeginBlock>
    <BlockName> = "Copper"
    <Mu_x> = 1
    <Mu_y> = 1
    <H_c> = 0
    <H_cAngle> = 0
    <J_re> = 0
    <J_im> = 0
    <Sigma> = 58
    <d_lam> = 0
    <Phi_h> = 0
    <Phi_hx> = 0
    <Phi_hy> = 0
    <LamType> = 0
    <LamFill> = 1
    <NStrands> = 0
    <WireD> = 0
    <BHPoints> = 0
  <EndBlock>
  <BeginBlock>
    <BlockName> = "430 Stainless Steel"
    <Mu_x> = 409
    <Mu_y> = 409
    <H_c> = 0
    <H_cAngle> = 0
    <J_re> = 0
    <J_im> = 0
    <Sigma> = 0
    <d_lam> = 0
    <Phi_h> = 0
    <Phi_hx> = 0
    <Phi_hy> = 0
    <LamType> = 0
    <LamFill> = 1
    <NStrands> = 0
    <WireD> = 0
    <BHPoints> = 10
      0	0
      0.20039999999999999	318.31
      0.6008	636.62
      1.1020000000000001	1591.55
      1.3859999999999999	4774.6499999999996
      1.4650000000000001	7957.75
      1.667548	32902.232515999996
      1.789509	92585.397305000006
      1.878209	160685.354903
      2.0800000000000001	318310
  <EndBlock>
  <BeginBlock>
    <BlockName> = "1010 Steel"
    <Mu_x> = 902.60000000000002
    <Mu_y> = 902.60000000000002
    <H_c> = 0
    <H_cAngle> = 0
    <J_re> = 0
    <J_im> = 0
    <Sigma> = 5.7999999999999998
    <d_lam> = 0
    <Phi_h> = 20
    <Phi_hx> = 0
    <Phi_hy> = 0
    <LamType> = 0
    <LamFill> = 1
    <NStrands> = 0
    <WireD> = 0
    <BHPoints> = 38
      0	0
      0.21186199999999999	79.577472
      0.26566499999999998	100.182101
      0.33237699999999998	126.121793
      0.414377	158.77793
      0.51381100000000002	199.88957099999999
      0.63189899999999999	251.646061
      0.76778400000000002	316.80362000000002
      0.917018	398.83212800000001
      1.0703530000000001	502.09990099999999
      1.2142550000000001	632.10632499999997
      1.3346370000000001	795.77471500000001
      1.4229810000000001	1001.821011
      1.480634	1261.2179289999999
      1.5172140000000001	1587.779301
      1.5445150000000001	1998.89571
      1.571296	2516.4606050000002
      1.6020490000000001	3168.036204
      1.638404	3988.3212819999999
      1.68049	5020.9990129999996
      1.727311	6321.0632500000002
      1.776659	7957.747155
      1.8254010000000001	10018.210114
      1.870557	12612.179292999999
      1.910809	15877.793009999999
      1.947222	19988.957103000001
      1.9823280000000001	25164.606051999999
      2.0182519999999999	31680.362036999999
      2.0553979999999998	39883.212823000002
      2.0925449999999999	50209.990126999997
      2.1280950000000001	63210.632496999999
      2.1616119999999999	79577.471546000001
      2.1946439999999998	100182.101136
      2.2303389999999998	126121.79292599999
      2.272386	158777.930096
      2.3242820000000002	199889.57102999999
      2.3893559999999998	251646.06052200001
      2.471238	316803.62037000002
  <EndBlock>
[CircuitProps]  = 1
  <BeginCircuit>
    <CircuitName> = "coil_current"
    <TotalAmps_re> = 0.95335465779498896
    <TotalAmps_im> = 0
    <CircuitType> = 1
  <EndCircuit>
[NumPoints] = 27
4.7999999999999998	-2	0	0
10.800000000000001	-2	0	0
10.800000000000001	14	0	0
4.7999999999999998	14	0	0
0	-15	0	1
4	-15	0	1
4	0	0	1
0	0	0	1
0	1.2	0	0
4	1.2	0	0
4	14.800000000000001	0	0
15.6	14.800000000000001	0	0
15.6	19.199999999999999	0	0
0	19.199999999999999	0	0
4.4000000000000004	-10.4	0	0
15.6	-10.4	0	0
11.800000000000001	14.800000000000001	0	0
11.800000000000001	-2.7999999999999998	0	0
4.4000000000000004	-2.7999999999999998	0	0
0	-83.400000000000006	0	0
84	-83.400000000000006	0	0
84	87.599999999999994	0	0
0	87.599999999999994	0	0
0	-28.68	0	0
29.280000000000001	-28.68	0	0
29.280000000000001	32.880000000000003	0	0
0	32.880000000000003	0	0
[NumSegments] = 31
0	1	-1	0	0	0
1	2	-1	0	0	0
2	3	-1	0	0	0
3	0	-1	0	0	0
4	5	-1	0	0	0
5	6	-1	0	0	0
6	7	-1	0	0	0
7	4	-1	0	0	0
8	9	-1	0	0	0
9	10	-1	0	0	0
10	16	-1	0	0	0
11	12	-1	0	0	0
12	13	-1	0	0	0
13	8	-1	0	0	0
14	15	-1	0	0	0
15	11	-1	0	0	0
16	11	-1	0	0	0
16	17	-1	0	0	0
17	18	-1	0	0	0
18	14	-1	0	0	0
19	20	-1	1	0	0
20	21	-1	1	0	0
21	22	-1	1	0	0
22	26	-1	0	0	0
8	7	-1	0	0	0
4	23	-1	0	0	0
23	19	-1	0	0	0
23	24	-1	0	0	0
24	25	-1	0	0	0
26	13	-1	0	0	0
25	26	-1	0	0	0
[NumArcSegments] = 0
[NumHoles] = 0
[NumBlockLabels] = 6
7.7999999999999998	6	2	0.20761502835777601	1	0	0	1040	0
2	-7.5	3	0.20761502835777601	0	0	1	1	0
3.8999999999999999	10.199999999999999	3	0.20761502835777601	0	0	0	1	0
12.800000000000001	2.2000000000000002	4	0.20761502835777601	0	0	0	1	0
83.915999999999997	87.429000000000002	1	-1	0	0	0	1	0
29.250720000000001	32.818440000000002	1	0.62284508507332703	0	0	0	1	2
